# KPP parameters
 &KPP_PARM01
  KPPmixingMaps=.FALSE.,
  minKPPhbl=30.,
  LimitHblStable=.FALSE.,
 &
